#======================================================================

# CRYSTAL DATA

#----------------------------------------------------------------------

data_VESTA_phase_1


_pd_phase_name                         'fcc (111) surface                     '
_cell_length_a                         13.97327
_cell_length_b                         9.46309
_cell_length_c                         10.81630
_cell_angle_alpha                      90
_cell_angle_beta                       96.17698
_cell_angle_gamma                      90
_symmetry_space_group_name_H-M         'P 21/c'
_symmetry_Int_Tables_number            14

loop_
_symmetry_equiv_pos_as_xyz
   'x, y, z'
   '-x, -y, -z'
   '-x, y+1/2, -z+1/2'
   'x, -y+1/2, z+1/2'

loop_
   _atom_site_label
   _atom_site_occupancy
   _atom_site_fract_x
   _atom_site_fract_y
   _atom_site_fract_z
   _atom_site_adp_type
   _atom_site_B_iso_or_equiv
   _atom_site_type_symbol
   Al1        1.0     0.000000      0.000000      0.000000     Biso  1.000000 Al
   Al2        1.0     0.500000      0.000000      0.500000     Biso  1.000000 Al
   H1         1.0     0.852152      0.156735      0.930571     Biso  1.000000 H
   H2         1.0     0.899751      0.204878      0.071720     Biso  1.000000 H
   H3         1.0     0.949049      0.914656      0.768903     Biso  1.000000 H
   H4         1.0     0.875247      0.852387      0.862647     Biso  1.000000 H
   H5         1.0     0.864086      0.920773      0.129159     Biso  1.000000 H
   H6         1.0     0.939279      0.785618      0.115115     Biso  1.000000 H
   H7         1.0     0.349380      0.148542      0.430084     Biso  1.000000 H
   H8         1.0     0.387741      0.193187      0.574687     Biso  1.000000 H
   H9         1.0     0.437669      0.906367      0.274032     Biso  1.000000 H
   H10        1.0     0.362782      0.870982      0.376071     Biso  1.000000 H
   H11        1.0     0.404452      0.919964      0.685570     Biso  1.000000 H
   H12        1.0     0.444086      0.783321      0.615869     Biso  1.000000 H
   H13        1.0     0.921962      0.565898      0.061413     Biso  1.000000 H
   H14        1.0     0.031866      0.604293      0.104403     Biso  1.000000 H
   H15        1.0     0.399139      0.562768      0.577775     Biso  1.000000 H
   H16        1.0     0.512752      0.564206      0.622331     Biso  1.000000 H
   H17        1.0     0.180474      0.485229      0.114447     Biso  1.000000 H
   H18        1.0     0.184293      0.594398      0.005358     Biso  1.000000 H
   N1         1.0     0.800879      0.311869      0.208445     Biso  1.000000 N
   N2         1.0     0.283358      0.213130      0.218824     Biso  1.000000 N
   N3         1.0     0.306639      0.508333      0.377171     Biso  1.000000 N
   O1         1.0     0.907921      0.147104      0.996078     Biso  1.000000 O
   O2         1.0     0.932204      0.916226      0.857247     Biso  1.000000 O
   O3         1.0     0.927469      0.890863      0.104170     Biso  1.000000 O
   O4         1.0     0.404761      0.144774      0.497166     Biso  1.000000 O
   O5         1.0     0.428773      0.907638      0.365824     Biso  1.000000 O
   O6         1.0     0.430083      0.887910      0.607948     Biso  1.000000 O
   O7         1.0     0.965035      0.620060      0.124674     Biso  1.000000 O
   O8         1.0     0.451177      0.612585      0.631731     Biso  1.000000 O
   O9         1.0     0.139939      0.535324      0.049057     Biso  1.000000 O
   O10        1.0     0.764507      0.169778      0.808528     Biso  1.000000 O
   O11        1.0     0.889307      0.285303      0.206932     Biso  1.000000 O
   O12        1.0     0.252807      0.819780      0.395807     Biso  1.000000 O
   O13        1.0     0.257484      0.343075      0.816271     Biso  1.000000 O
   O14        1.0     0.371535      0.239171      0.211206     Biso  1.000000 O
   O15        1.0     0.779126      0.755581      0.871129     Biso  1.000000 O
   O16        1.0     0.385764      0.956437      0.836215     Biso  1.000000 O
   O17        1.0     0.303893      0.489361      0.491645     Biso  1.000000 O
   O18        1.0     0.231337      0.493521      0.302125     Biso  1.000000 O
